powerflow/Codes/PF_Formulation/resultados_csv/17/9bus/ramos.csv
caso,script,branch_id,f_bus,t_bus,pf_pu,qf_pu,pt_pu,qt_pu,loss_p_pu,loss_q_pu
9bus.pwf,17,1,7,8,0.49822559874806466,0.016230688977009564,-0.4960618175816914,-0.14656486450218748,0.0021637811663732798,-0.1303341755251779
9bus.pwf,17,2,4,5,0.861892417075258,0.1531704568726383,-0.8538680867362256,-0.2560316731550124,0.008024330339032382,-0.1028612162823741
9bus.pwf,17,3,4,6,0.567277545049515,-0.04901693252490118,-0.5617815407178192,-0.07721272761162597,0.005496004331695836,-0.12622966013652714
9bus.pwf,17,4,6,9,-0.3382184592821763,-0.22278727238817111,0.34288075717300026,-0.11466527178417327,0.004662297890823952,-0.3374525441723444
9bus.pwf,17,5,7,5,0.40177440125193364,-0.026557265435723343,-0.39613191326376895,-0.24396832684464287,0.0056424879881646905,-0.2705255922803662
9bus.pwf,17,6,8,9,-0.5039381824183056,-0.20343513549775344,0.507119242826997,0.020320438739921787,0.003181060408691483,-0.18311469675783165
9bus.pwf,17,7,1,4,1.4291699621247729,0.22264795077604305,-1.4291699621247729,-0.10415352434773695,0.0,0.1184944264283061
9bus.pwf,17,8,2,7,0.8999999999999985,0.03990938832047064,-0.8999999999999985,0.010326576458712822,0.0,0.05023596477918346
9bus.pwf,17,9,3,9,0.8499999999999964,-0.052429904751168266,-0.8499999999999964,0.09434483304425711,0.0,0.04191492829308885
